500

He  3.15715134930298  3.778839377836605  0.8042749313115728

He  3.3167058660402047  -2.928596346609563  1.1389379592670321

He  -1.322963646318896  -4.498107308682164  -1.5094766806510245

He  1.874281842696008  4.6690453384093455  0.6159735464518277

He  3.3534264849961284  -0.05888741513212907  -5.099437070522058

He  -0.3694735033730449  -3.092681863949591  -1.1524846434907672

He  2.4490347389840923  -1.9244828134644993  -1.500547040431347

He  3.2026528631803455  -2.030096250523526  -0.40822613181883444

He  -1.3202565276940421  2.834687243916256  4.309093941828875

He  1.1618821509794723  -1.0325122054119384  -2.213843377182391

He  0.014805898515624296  2.417032082808883  -4.23196283859694

He  -4.835573312157366  0.06904593098550182  2.8882154745587565

He  2.7068771399337286  2.5101822785800874  -1.3048942753939816

He  -2.7486346273627005  -5.308412245931173  4.608852562279357

He  0.9678304819446212  -1.6380766974523  -4.8924046604594995

He  -3.4462855220852684  4.241424571853934  -3.7104758252684813

He  4.905201094740171  -2.826920033386237  4.745416856200241

He  4.577652368883504  -3.4632397139673983  -0.7185997975498435

He  -1.864639040422407  4.667403296795699  2.1715390372965144

He  -0.42804286162717475  0.18996719787079705  -1.783742635311009

He  4.150155589695854  -2.035369297239556  -3.1452064250254566

He  3.4739321321977847  4.929682060753729  -1.8370811254938844

He  -0.7841711450405462  0.49409620471232035  1.171404321421883

He  -0.8229550646605478  1.8832292259176864  -0.06647443796032983

He  -3.516908408678613  3.305522871610033  4.057819763214875

He  -1.6301957078401468  3.598182210629689  0.8389160252197334

He  -3.0982065002194163  3.967498663095212  1.2075873333898863

He  2.616734474442855  -4.968907547127563  -0.23691666264132347

He  -4.618521254138502  2.6780400948307292  4.207659737632366

He  2.7075174284422743  -1.5332086199774073  5.062278049561269

He  -0.2652779196682089  2.1959464467032754  0.5939073294084543

He  -4.316112849971509  -4.122678320176482  -3.6957804869955755

He  -0.6128469006273173  -2.9763352072926055  -4.263012054919226

He  -2.1059310901701864  4.577295407214797  2.317128946240893

He  4.551241464726191  1.6419712849255022  2.4051528702884504

He  -0.7338824758458078  -0.6897821037397777  0.739425320066654

He  1.8804791468317656  0.5049061498985407  -1.7003785290572233

He  -3.7809252204063375  -0.517951218277584  -4.076753130662838

He  -0.9975044745446038  0.3788323671893035  -0.4062777819123096

He  -1.5855564896344738  4.5194119308098015  -0.2674268070321495

He  -1.9295510798271016  -2.265060949297826  -2.60724842536474

He  0.44415609626579755  0.46792123569935395  1.2494187588521704

He  -2.6431582319520315  3.8364757126355764  4.341131262435812

He  3.960477796277941  -1.3658537000299797  3.484131408964617

He  1.0350825006172537  -0.6767456687153128  -4.647783459185616

He  -2.2645003473379197  -1.4643701938058487  1.1314404471258555

He  -3.3056545248254077  -1.5382777041455515  3.3542992629091564

He  -0.17367131563230068  -1.3983742058519377  2.148293074422102

He  -3.0809035834278697  -1.0564173687588867  -3.0109415700281774

He  0.34811777300944446  -1.1601728338855233  -2.744362576138425

He  -3.644224491928517  4.077963916111304  0.6215795546336396

He  0.15184022106978162  -3.0043644735052832  -1.7469844835994703

He  2.256559477085191  1.4975852267635537  -2.433703539181845

He  -4.010056649256769  4.552299751670568  0.2630047503418121

He  3.5439156447030125  2.7309903485299967  -1.49899999801354

He  -2.340083721632904  3.711132109132938  -2.3839777126095596

He  1.0398538826272719  3.418029693638918  -4.554865419637698

He  4.80405452537611  -4.0452425739860605  1.3843545392030199

He  0.02339007438772127  1.016430966655468  2.8235208809136676

He  -1.3277567774258734  -3.2375267623663158  1.9129388600639214

He  -2.704150928859407  2.3488396102937763  0.789889220658801

He  2.74602913436282  -3.8084315366146586  2.1485831908015096

He  2.0364661598910865  2.4875521981780375  1.341143771410687

He  -1.0681711816551587  3.1000628544355284  -5.139144083432325

He  1.8904546365152377  0.14431736743574167  -3.9834832445875477

He  4.2975273909018705  0.4877054501314948  0.6581649131400923

He  1.313945465597128  3.6529136106276305  -4.300205720915645

He  1.948754051897969  -4.2648458658651744  -4.48877905190018

He  3.871757345837478  2.5210022415255553  -5.174102200229755

He  4.841322492035847  -2.0525974898843677  4.555775468572815

He  -0.48396350286497086  1.6093488784597796  1.366546754964042

He  -4.649557754295434  3.4875254116165944  1.3251613752567462

He  3.2195706135273126  2.4093271353522647  3.9344701390420265

He  -1.7851892313808517  1.0719451558801487  3.8275734543255466

He  -3.0014424165825284  -4.911462565151257  2.069177221987413

He  4.504128357112498  -5.349473170863545  -3.071470657487533

He  1.6850698309579897  -2.4806331791569463  -1.1582124849457482

He  -3.226918552770813  -1.7718895883314518  -0.5084511781521553

He  -1.324286961918626  3.3514844078860917  -0.5433649883357113

He  2.910911122458372  -0.2516723269678147  -2.652213731226354

He  2.286963514065283  -1.3343205373221003  0.5261152695868279

He  -3.928455366085763  1.4192089486645942  0.3191411547907228

He  -4.883602967316715  -1.3749135312387433  4.47568444669073

He  -0.2950183931640399  4.351586501602834  -1.8817326237580039

He  1.6852542740547714  3.1137260879286184  2.192261909008697

He  5.001744974460209  4.456424653720179  0.259704168078845

He  -0.8038685037278133  -0.8828079575351109  1.7673910001692474

He  4.290408066389809  -3.5742886635219735  -2.800907959066042

He  -1.8756416663098237  -4.06534760933329  3.874211827447481

He  -2.9920642009011975  2.355023457691908  4.754024376475612

He  -4.496777739603215  1.9096127215258185  -1.9345071892042651

He  -2.2892022097281988  -1.2246940278638636  4.35896872588752

He  -4.72683892959444  -3.422496086050091  4.237686717450671

He  -3.9871925180820496  -4.633089835883897  -0.9970582148278853

He  -3.722686499363945  0.4023662584909573  -2.1121535376235308

He  -4.624799038741232  0.997606260628335  -3.449843182220041

He  -0.6797802952748773  -4.8153256045544115  -2.4729435780827993

He  4.728034101609512  -5.188780840190601  -2.430227870760671

He  -0.29053619478206333  3.300042750805093  -1.646516307386098

He  4.78225655243789  -2.8355267418982404  4.7882246633657175

He  -0.35934148899685675  -0.4753602564648938  2.752524905657929

He  -4.533007171239494  -2.5133705912717836  -1.8910546002409807

He  -5.025230956547133  2.225240883080935  2.8807088315236897

He  4.405082069865711  4.224305823594105  1.1706003313980127

He  0.3832626339506047  4.23393937248666  4.583260460799567

He  -3.8933548476470627  2.482459926181313  1.0603587356155109

He  -1.6532754971130512  3.8130959485854814  -4.720306938765915

He  1.6808085424677672  3.7983478344164174  -2.474947728934663

He  -5.002919979636669  -0.21565969268333704  -1.6416361237693968

He  -4.939526124591079  -0.1195781190944326  -0.144775825079302

He  4.390328970928092  -1.2105326176401814  2.5123251310218913

He  0.893578894228399  -0.179025206745765  4.996547832309752

He  3.873431206097158  3.2029278867084505  -2.7836764692911724

He  2.697174540916556  -5.467050973085544  -3.233764772491517

He  -1.5020568622554735  3.070545578388061  1.9781198377603135

He  -3.9275822971761816  -0.49264455491607484  2.995768081768819

He  -2.2257345790838383  3.4550042729841506  2.5057622444072822

He  -4.586993370325887  -3.5623855630969943  -1.204345855852664

He  -2.4826028361001855  -1.7274350997155086  -0.9146674706079349

He  -2.653378365142061  2.331251503412408  1.5837763524959672

He  -2.832131486433191  0.5760331067674075  -1.6279513817510707

He  -2.039855109870739  3.2018556313691735  -2.768345344565623

He  1.877903867004439  -5.064169107119267  -4.470387000633179

He  2.987239497257224  3.1569858515276117  -2.77761533797859

He  1.6123184908232606  0.4048686780375343  0.9641062398596401

He  -1.8589286180924616  -0.7601025054653032  0.6212606782151703

He  0.22442410879283198  -5.4389884758650355  -4.942763109880911

He  -1.7355345945521006  2.615796114664445  4.6480656720551305

He  2.510125461901805  2.5980753142448094  -2.6495245953852

He  -1.9684141577667273  -4.107492866742749  2.9627405192739213

He  -0.13178550165096875  -0.527319801187466  -3.7778048445676866

He  2.825570396853494  0.09693742016161513  -2.0709346460020264

He  -4.889276460995677  4.941492475386676  4.729888957597722

He  5.049496636899929  1.4155460973336376  0.32018662182100993

He  2.3193222577318346  1.6014223423475793  -3.8091002219932752

He  -4.453676940169942  -4.8942150010267165  2.260145877422518

He  -4.5953933576112105  -2.1642832094561615  0.08699711141342026

He  -2.368052107791398  0.5014468767408018  -2.350706263755662

He  -4.29786988906493  -1.8686720978649802  -3.4373733189180196

He  -4.036478112093902  -4.15056904573608  -0.44683457428467205

He  2.842444893844829  -2.002018704283015  3.219328548178116

He  -3.5617484561406854  0.2850295223539561  -3.680127387508456

He  -2.688782908171097  -0.8076310790552731  -4.3846012231711144

He  -2.240019879489322  0.15835503469213794  4.125699862130349

He  4.053048410039621  1.2426193229956382  -0.6380563252485558

He  -4.641397568883821  -4.528594526452684  -2.907226335240704

He  0.2528155291234357  -0.564558851805118  -0.14991133896730666

He  -4.424559270412082  -2.6574051227625453  -0.8017736600279222

He  0.9427634295871505  -2.126752749562884  2.342303388146615

He  -3.394331146312978  -4.3624203975611255  -1.711392236808561

He  -4.670191710742217  4.848992302688113  4.597967836005046

He  0.22373140483688597  1.2264362184062565  -3.8343473873756744

He  0.397333261503293  1.3128877473926306  -1.92370597937709

He  3.6743869762916845  2.9308132802143176  -0.47193349828730846

He  -2.7915006135815688  2.8418944512697553  -3.9982083030732567

He  4.47007978274257  -1.0157347317708916  -2.505896023876322

He  3.2691488113491616  4.702804697847942  -0.4612023031293129

He  3.913517120669987  -4.92907581365851  1.143904090332796

He  4.12742682908196  0.6567950676607022  0.2261712843349242

He  3.4335139546714393  1.1408274174820063  0.20254621596188097

He  1.6453262084442206  -3.343083052863671  -3.4828615258912707

He  -1.8860144721861063  2.2328201815342577  -4.836142804700597

He  -0.5477405525155078  2.2198192898759888  -0.7509901735552014

He  1.069921651864928  0.6727375189134669  4.726873238286483

He  -3.87165546771973  -5.014547056286161  -3.553783981790122

He  2.7528295155081737  3.1600286730212384  -4.580219515912626

He  -0.5024967893384522  3.0370055250916157  1.8136884212400315

He  3.4290761939542107  5.036769542276034  2.7019953432139205

He  -4.4871103365055705  -2.9932805206607314  4.3709883796067635

He  3.9869374578195362  -3.0757626296699594  1.8378917220685245

He  -4.917031368331054  -2.1833319452457824  2.835202714886582

He  5.138215849734423  -2.8466520720831743  -3.3440656172913017

He  -3.6213231810023676  -5.292433280889198  -3.5279602890678183

He  -3.3718017024268274  -3.7705190203090915  -0.3129160731144224

He  4.535473580253127  2.266239056658619  1.8121860055638952

He  3.693498706005733  -3.7067050137480613  3.883584095281337

He  -0.187250867011799  4.9693092236341165  -1.0375100262853156

He  2.2421403696082294  3.5500829230211424  -4.651543654884407

He  -3.200362817241453  -2.9912849647908386  1.3170269227959004

He  1.9305293647637416  -2.9184830390104564  -4.424704942881664

He  0.09523174839558098  -0.8631457214418193  -2.870320063712273

He  -3.1565486085267382  1.4029796657311318  3.2414271965662844

He  0.7181312800722469  -0.47229601493880224  3.3039415949079047

He  4.314187069682041  -3.2680582694016804  -1.3495254013217066

He  -3.8247924970462943  4.3488516779501465  1.3891734531390199

He  1.6745086678612533  4.102195897023281  -4.79186521952603

He  -0.412533634169451  -1.8465759825075971  -2.3485292917306633

He  -0.41128084221693123  3.7902240956465705  1.2653140968648289

He  -1.299481194687423  -2.509514788310327  -3.2718549963032255

He  -4.725024698411228  -5.063365302934768  2.7748749127000276

He  -0.5805538165214785  1.3310863276585947  4.3906483175941835

He  1.5242325587961207  1.1266162126055315  -2.0850167441666145

He  4.212001946237413  -1.089528367475932  3.2783719194530243

He  -3.4097463614279477  3.5091631840141644  0.4900199298607212

He  -0.014105189416691415  0.6133166129445331  0.17429061556127318

He  -0.1874489236280537  -4.453692058222797  -4.064977369551855

He  1.801784403080947  -2.807184712472632  2.7451058717389833

He  -3.537366792516524  -3.3161887294292756  -2.805747184371373

He  4.186882493198102  4.2067954260332545  -2.235614208393556

He  -2.3382998988016546  -2.3195295159896814  -3.320467050309633

He  -1.5938524367634361  -4.681873715677917  0.15558042427905885

He  4.997736188220397  2.8059221455308316  -2.5793034729893782

He  4.0451269846977285  -2.960607990227447  -1.2208482103976148

He  2.02212664614507  -0.6532579018597788  -4.199030425705976

He  3.1026010694888266  -2.7538271383641693  -4.189378703033359

He  1.6547025571170035  -1.50366710254998  1.212303091270849

He  -1.5438952857731287  0.5940521124409501  -2.3532394532922267

He  0.8004740775817121  1.4828327054887447  2.853248931532376

He  4.41773227227703  3.8658640333410514  1.8992268359709907

He  0.4665546491879321  0.36054967966258716  -1.8368424085905979

He  -2.5007810502359664  -2.5474516669756806  1.9857932602289472

He  2.8865580088839855  1.0672014910019538  -1.7796976405186293

He  -1.5632927160296106  -4.687190509433011  -0.5669418286225549

He  1.4461965204032545  1.2602441466188605  4.762878876372435

He  -0.5193277346486606  -0.5821285996313729  0.5980267336346218

He  1.89463136040917  -1.035651766134664  1.569071030676407

He  -0.821175270464578  -0.05756120443042866  -2.0249969907772054

He  4.917334037782008  -4.811774594479588  4.405140698903792

He  0.9527373917530482  2.6224254107798637  -1.7009294031432436

He  1.390812406295009  -4.001503784087665  -2.1050738292867277

He  -4.172780878169011  3.848244729557956  2.86772255228597

He  0.17196879325041864  1.549766186751017  -0.5051375346632447

He  2.234575859584078  -3.19416998490663  1.1962253477273637

He  -1.54808978002666  2.667211303076908  -2.2417263435491726

He  1.397829147143587  4.928658609868501  -3.1768102027751657

He  1.643938866770919  -4.279572844900831  4.811601496431685

He  -2.3512141245878464  1.2206625793327264  5.076613607277011

He  -1.568703365218594  -2.2096019220440475  4.957070298959886

He  3.289334658678392  4.642758268633247  1.007606314519433

He  -2.5542586289288063  4.633998848844549  4.824848568620847

He  4.4333169382919975  2.368690129878145  4.448576066173488

He  -4.117763615913299  0.08451190822835225  2.452877012277524

He  1.2389337803282985  4.105248422714072  4.796569931910249

He  -2.864802451309206  -5.423259662651787  0.40372804705739407

He  -0.7181640689880031  -3.525377724851544  -2.6654298517608015

He  -1.6324730852164213  0.07447135869155769  -3.4741158511459798

He  1.6274618537587542  1.9506601069454523  -2.3433542354481305

He  2.3253875654738057  -1.5441379010029426  1.8677155347751917

He  -4.733470180943289  -3.176601335150805  0.51876829590159

He  0.2841304280402958  -2.7625272540342767  -0.30966157240401315

He  -1.9319926452656802  -3.1576349127043613  3.5037887826781935

He  -1.0422663536252315  -3.9713124240814612  4.8958046981850964

He  -1.6289602222426476  0.7514336483759761  3.3743577504840236

He  4.360839597374436  2.1865141157996892  -4.203687892571852

He  4.4146229367376435  -3.5580515464645375  -1.184422202849337

He  2.495057268760267  3.4212043211800522  -4.943593803825017

He  -1.5627934976774094  4.181055989955602  -0.8380748573230277

He  -3.2882388451010742  -3.5174246842114596  -0.8793595337112508

He  1.0810976694153904  -5.319696030415242  2.9568021656664163

He  -2.6466900346406024  0.24662818052328792  -1.9443526118563592

He  -3.201461936237191  -3.300341362048577  -4.785983448573346

He  -1.3516860799491428  -0.3991697330308728  -3.712889670904373

He  -2.478777001074784  3.804070959867104  -0.2737329550202654

He  -2.4999486460104534  -0.8358676411651055  -2.662752070340724

He  -2.3570405813287767  5.066219047029085  -3.855869889216701

He  3.2312773349105752  -0.48258818610952064  3.2144699969474355

He  5.069460865346518  1.4984326919048976  -4.886912327481473

He  -4.501382619178267  0.8689368919528762  5.0886241398160434

He  -1.0189601798447396  4.353936745220299  4.731615959021881

He  5.1245507739950416  -3.298290021521092  -2.567825719363155

He  2.9698296388842373  4.900646835904082  -4.4404236912516915

He  -3.6175978732737444  3.4533681555203994  -4.2293202581028275

He  4.383275113702208  -2.953753073073914  0.35929817251684026

He  3.67399177482241  3.5121397202584657  1.234139688003471

He  -4.143058499962679  1.9987831056239158  0.9530540901315803

He  -1.8790926206937069  0.3245708619452648  2.7738028976283964

He  3.085056788649021  -4.163936449743319  -2.4420703838484794

He  -1.280982126467146  -5.070163776367042  3.0822394657352272

He  1.7783783239411308  -0.3832465317534427  -4.872951372894302

He  1.2518520584716417  -0.16030575855513945  -2.507867164770064

He  0.46664469475126896  4.367178799383985  -4.488734636438567

He  -2.102100686057729  -1.8035924772633558  -3.330246264902059

He  2.1950268729015607  -1.0082153107460636  4.023576677149597

He  3.9845467703284365  -1.4655834434863804  -1.6897039980009407

He  -2.659912378357181  -0.4835307783383063  1.209793596628548

He  -2.617731713558284  -2.359903386831494  1.2763587456839474

He  -1.3106197684614047  -0.6257557392254548  1.9145875900286558

He  -1.624150694949553  1.780500143449229  3.075373658024704

He  -0.10336157579990937  -0.6809382401989118  -2.0867016307308717

He  -1.6054366550614818  -4.771395862006631  -4.329584908486554

He  2.420618037236915  4.8819966059840905  -3.03881121214939

He  4.980434768522978  5.049651745460242  2.2690496929522705

He  -1.2774996331083666  0.6027812350972283  -3.11411761788568

He  1.322701919352587  1.6712929716294398  -5.184908221517001

He  1.5587941016981355  0.5157448537284937  3.835739658938003

He  4.438496612001891  -3.8329723734616468  -3.172876374946878

He  -1.813072256526716  1.0191335665284031  -4.490157465404466

He  3.105885619886753  2.5214380400503607  -5.031283808615473

He  4.950289090909083  4.177708434233342  5.058308311750346

He  0.8424913006289085  -3.685982604242346  2.0262853609776585

He  -1.8249907673772592  -2.273884064939442  2.260377258804933

He  -2.3855895214750755  1.5416767323620983  1.7943849884654963

He  -2.0195299987157176  1.2941615051739086  3.8757322214723713

He  -4.814855759592849  3.104980537116558  4.417665087866207

He  -3.372665657480354  3.0990772787145224  -2.8748644232306044

He  4.032518708741022  -2.1984796765846832  -2.350648949641422

He  0.6167043360423  0.5591403656472302  -0.7623711746322208

He  -1.1234009731651236  4.001124295988774  3.4665164422488597

He  -0.6535865012377333  -3.0261037990725455  0.956876902504189

He  -0.29396856021908946  4.922317570131057  -1.8241162721550377

He  -4.672863080291842  -5.419553099906882  4.12532137418932

He  1.6732396583512534  2.275229885074084  0.391827006219373

He  -2.7088642027333676  3.797264850951012  3.2636851227891257

He  -3.514818603450418  0.15626436400610447  -2.325166784886797

He  -1.3488261231787944  -1.7506150244050256  3.72970458150265

He  -3.837704031390425  4.729976256065098  3.1725735985429995

He  2.685943376718982  1.4369119012981737  -1.8907395222871826

He  0.245937492174027  -4.816963365236467  -3.3205361141582665

He  3.5515955861821857  0.02773098722690226  3.615321924563696

He  -3.199218734988976  2.6449257311674517  -0.43762979753233944

He  3.867664130165334  0.7514789995087157  3.375801917264242

He  -0.41222674838692214  4.79860698398313  -0.12780862821296549

He  4.972158064860308  3.7049527950439107  -4.029053979274477

He  -0.7595029532581695  3.5121800272684265  4.5922384324538434

He  -1.1665910664030648  -4.3753485404227686  -2.5659452004556913

He  2.155684581166148  -4.130978562699752  0.41531355663427394

He  4.198516149081638  0.226720284530888  -4.339136255655047

He  -4.068730710768035  -2.9370451129816915  3.656087323103931

He  -1.9688535899406503  2.963422546248691  2.5783551353519663

He  0.21653443203592557  -3.6300274824802234  4.898233700996444

He  1.180140856864647  -0.055333913028157926  0.7402015804545563

He  2.545995870165753  2.117925496855953  0.8898404947697985

He  -0.113451457420434  -2.4115214087705135  -1.668085999555653

He  4.683703122106819  3.7755039468000677  4.951140360126057

He  1.2780956674618351  1.6737731948722097  1.2462314032388382

He  3.4518180892518084  2.263112837291938  -1.4809990844852539

He  -5.0396215236078294  1.9172766337538691  0.38924607452939775

He  4.524524769299019  0.9688254257151271  2.195301142476977

He  -0.9405851099283511  -0.12853461086658866  -0.7496172124755927

He  -3.313923998489108  -5.20502658920173  0.04255729062310621

He  -2.927881394920142  0.05527857259168493  4.143377653958849

He  0.5919185527519628  1.0711451327656223  -0.5420294030123564

He  2.4691606990517223  0.009189121851473208  2.2702176758822077

He  2.942703287963539  2.4286416423101334  0.33483363222493856

He  -3.5959484612299857  1.359632080999618  2.071681547721027

He  -1.6573410575639937  -1.4055145033448482  -4.563799619749454

He  -0.9945601259887215  1.5083834696365892  0.41469252840197507

He  -3.9367584607640587  -5.1762796171379035  3.3795988455292973

He  -4.910493875972133  1.2486734020158823  4.329127014726462

He  0.9253510027648709  -2.4190601934543374  0.6061766027082179

He  -0.01576983366785754  1.0209775589829573  -0.37502553748941936

He  -3.975956552971283  -0.2809689405581655  -0.7063593291492237

He  -4.943209631359091  2.0393755855063116  3.8784705990336508

He  3.6376494960741117  -0.7309045158247256  3.504166213668991

He  4.280970433418263  2.8921352520665984  -1.0682253951382172

He  -4.406284528126446  1.6415040528993652  0.26118548537347486

He  -4.778084827483054  -4.043746236232407  -2.4199252110586458

He  4.499998908540268  0.9672482688346662  1.7924699042979928

He  1.0400763638775805  -3.2284229598471086  -3.964180108573924

He  0.5285420507598476  -1.1466241000638342  -3.317181288903584

He  3.2984821790276913  -0.02461336792987398  1.471979689559679

He  1.7928561228085926  -2.313698749255654  2.73074509915828

He  -0.8778930048677618  -3.695009020154852  0.7646996832586496

He  -2.9012599968570605  0.2708917365505213  -0.22991307037356867

He  -4.210163797566482  -2.907512813414806  0.8856342514794968

He  -0.06348782449911132  -2.95574256787248  3.0372921363890923

He  0.36184588723881683  -0.4393619861149881  -3.6103069569300907

He  -4.474250738592616  -3.9050336899312343  -0.3277555577382407

He  -3.6382729271309753  2.4885491935859165  -0.5937328632863272

He  -0.40688755234241936  4.486968708021953  0.3363452481701351

He  4.20379026905261  -3.643648816029945  -3.019140162110949

He  0.2720037773098128  3.8961496071446478  4.961090083165893

He  3.5107561686282263  4.693738847470291  -4.886690793185162

He  -2.8503623106114153  -2.3766167502886635  3.6500048778359324

He  -3.914779794883915  1.3713314491541857  -4.970748061321236

He  -2.456805653295602  -1.992450421292651  2.175401538780718

He  5.010946436155893  0.4319976027096782  2.148713315510833

He  -0.4884128590896558  -2.7010686471073484  -3.716157423578136

He  0.8092940942440634  2.9766633389016492  2.9874404273932913

He  -4.325630653455964  -3.282076932535306  0.31919379883143045

He  -1.2423561912404795  -4.68117972354431  4.982964167994066

He  0.901668228549914  -1.4056445066100456  4.903907756631027

He  -4.378166902269022  -1.372796928400394  -4.666279086457384

He  -3.6887241734381133  -2.7050228752030874  -4.9862281679531755

He  3.864423261502492  3.3497600292019807  4.070588644746382

He  0.041081117203903394  0.9127150768776757  0.7826621338715377

He  -0.1886245191958752  -5.18290578396813  4.572305265696816

He  2.682491990080068  1.9629978627359292  -4.309985685420423

He  -0.2765331297522537  -0.13418334698003917  -0.5004627432492639

He  -4.5411564524503865  1.1126526766687568  -3.198931948971755

He  1.8464290285550131  -4.409175193213495  4.545855079778292

He  3.8988086101137123  -3.0064710501809238  3.6776288208296832

He  -1.9533221357765511  -2.868585635115872  -3.3904523077067457

He  -2.4399599982512785  -0.39825803889704525  4.186120091323318

He  -3.8568300671683318  0.04683686299086701  -4.161321456569215

He  3.247815400630744  3.6224232266771987  3.666946585535674

He  -0.8938663967126368  -5.149075488324725  -1.7396943277415595

He  1.9577415379647871  -2.9755937884840327  -1.4320833072532624

He  -3.472566638870562  4.449698525750039  1.7049815493173441

He  -2.5157737917682215  5.072454524126855  -1.7506290696024187

He  -0.2852763658789091  1.4096877124827916  -2.173431003143182

He  4.892533055958205  2.6152745896544487  -3.7453233962183714

He  2.2621656585272363  2.925680171467309  -3.1924119009729357

He  2.5897953832670586  -1.123033203543843  -4.786568326658593

He  3.632308423676964  -1.0858095928829254  -4.733703787288748

He  3.959908493544654  -5.157045049675156  4.149217193525289

He  -3.3639609950236524  0.13063546337723936  -3.9210605914534122

He  2.074521860815656  3.453019856001374  1.4939118518752472

He  3.709121638051753  5.0588685258764725  4.23258687058643

He  -1.9249546025871933  1.1042983607515862  -4.089723002548108

He  3.067251168490828  0.5105153506738028  -1.9107037146513761

He  -0.5589207642439071  3.702857130054283  -3.3203018556104316

He  -0.021729751545622688  0.6047798225699127  -2.7366581843956275

He  1.7875298325655267  2.5750473528733187  4.246832623403994

He  -3.117371135567154  2.8575194314644414  0.9501587168069122

He  0.8574346190912117  2.9027488277089653  -4.581153317747385

He  4.510246038598452  -2.54727063689124  3.0630898379104283

He  -4.859558843963655  -0.23653411772868269  -3.377996477262786

He  -4.536651800414881  -5.082647859546784  -0.14037481824826198

He  4.523910129173373  4.668908602292819  -2.025153375131746

He  0.5251232523095737  2.7633681571535624  1.5748538018082467

He  -1.0343560377795245  4.292019358481181  3.8993298948309554

He  4.541249850622183  1.5428956040188098  2.7354013373826724

He  2.215261452989572  -4.700866348372875  -2.8371503731734853

He  2.1471031854144877  3.0548450515374723  1.1162060785304586

He  -0.07611354896248143  -4.27769702507215  3.7470628733657843

He  3.9736655893078336  3.7210295796267223  -0.837531506829804

He  1.6813056634312031  -3.0610829434869964  -1.5732736944498624

He  -4.293979014121374  4.3775024870219355  -1.2419155527160017

He  2.3647984041237193  -5.251665667502026  -2.587475823391422

He  -4.249881076872234  -1.2580473459851897  1.9410769018972949

He  5.080148357893512  -1.8749454170214015  -1.737366778406827

He  1.2639826072572893  2.1647849374829558  1.1567279819958127

He  -0.5919666717860256  -1.583929417697051  -3.020434004377742

He  -0.4836007733071467  -0.7044461663115515  3.429890632987724

He  2.913673295027539  -4.781397032292467  -0.4928229055070634

He  -2.5808231611600667  4.2535002238503  3.430580055695424

He  -3.7590237484568276  3.3740308388809175  -3.4978016537431866

He  4.768197908291696  -3.9967702290212306  3.499257114460496

He  4.339376487888562  -1.0957831360157968  2.3270234883194854

He  -2.464373203319159  3.9676011292358306  2.5236624397620293

He  -1.2864580494347864  -4.050193116137666  -0.7208519181922991

He  -2.7030363171790297  1.7678125148787567  2.79756875584476

He  2.7171359332023344  -0.7083218606167566  0.981024808924419

He  -3.466237632105488  2.3246670046216336  -0.9479867893667018

He  -2.8953239833211404  -2.181914586874418  4.260386354345123

He  2.8391454648112866  3.818308587173483  -4.632869828866746

He  -4.418204008273689  1.7081055311723243  -5.221538973823832

He  -3.6039064207386975  2.0729171354278684  -3.2403561921845307

He  -2.974769477939084  -0.98810168541959  -4.046242100935608

He  -2.6448654081736525  2.449735222583053  4.25950960813255

He  -2.0918591098441195  0.5782007375321679  -0.26236327817797056

He  -2.3739052659496607  1.7908794626816813  3.059548456531617

He  -0.9257815105540445  2.2958535005608725  1.8349503707330752

He  5.105814541885181  -4.942473058033487  2.0070248051149147

He  -4.6610138339767015  4.204707287687307  4.738929050367527

He  0.53399290924617  -2.7462123639361464  -0.6026859600008923

He  4.82849302680663  -0.1255868559161342  -2.4338994104234155

He  5.132554087761885  -3.3371023505452597  2.9315897776247626

He  -1.8380055486019609  1.6207313781886878  3.8251610573111074

He  -0.5586064095400131  1.0079221735840596  -4.553498695968894

He  -4.850788232086134  -4.680183981912798  -0.8765032168503741

He  2.990781770856931  0.898085971622973  1.2256979519636677

He  -2.3327285714907817  -1.3580829313793892  1.1520971863733793

He  1.1264929818818166  2.2452701833631776  -4.467772489786095

He  0.8383696499054959  4.018256157891782  -0.35891659473755

He  1.31523952097319  -1.5975151797599259  1.4802152437192946

He  -3.1854900826917683  -1.0663740340115369  -1.9672961695958304

He  2.0940356946984053  -1.0615508260680522  -1.679761630897413

He  2.269569491060402  -2.183426880149688  -0.2376286231758531

He  3.987496476993786  -2.6280913636438386  4.763748358231998

He  -2.70343216474608  3.5198823599293436  3.8118825791928432

He  -0.15935362658488877  2.9369137585612526  3.9420952708460124

He  0.10996974535379891  -4.009852281281104  2.084328774609308

He  3.1777916582629415  -1.8055162573560677  -1.7123962822255696

He  0.9085982600691771  -0.9150016397506375  4.76901025160078

He  -0.3673385536440189  -4.413059201955582  -2.110345556771222

He  3.8495385146536454  -4.908053324072322  -4.403814614354942

He  -2.38178641879911  2.058060024145755  -1.7668326652411859

He  -1.9822027916397478  -3.5204564157140394  -4.244119155284574

He  0.5442359006508232  0.44002181197571605  3.1047909888020357

He  4.1307880182130186  -3.2321546028287087  4.639322326096594

He  0.252899925439592  4.315153449349078  -1.7286208648693724

He  -2.413604152328039  1.5908247068113304  0.7083133712989116

He  -0.2077257344302698  -2.0093122387883504  1.3617073541581814

He  1.9798448686533976  4.278924428268929  2.7225658452579857

He  -3.6821735830484275  4.393697959868108  -1.0494266867587783

He  0.22210710573825723  3.092696631039187  -0.397378919848162

He  0.35462902977663796  -1.6102063246416096  4.245366356878917

He  -4.0180269607307215  1.0967373083467353  1.6792619996079285

He  4.80159426291736  -2.7209519843068626  -4.242876195663066

He  -3.79223034247119  -3.0317140362512394  -2.5093721001401987

He  -4.034272101169165  3.6427404376958097  1.7502896237781036

He  5.045160875486108  2.377948514563147  4.835138280934909

He  2.690029363897859  -3.3267249979932236  1.9341600812210404

He  -2.430231863159958  4.638015630089563  4.586335522899218

He  3.0682464742970246  4.213143327405529  4.3653412249664365

He  -4.7117721389218685  -3.610755215332485  -3.033661749556186

He  4.375932255335839  -2.3227811312924995  1.552808993595742

He  2.049807976914247  -3.85258064555871  -2.758199522172779

He  1.886551136466382  0.030566450161552097  -3.253258967518618

He  3.7444761430551274  -2.300521572557129  -1.4951929633087189

He  4.305872535258293  -3.4865301147349306  -1.229992533911693

He  2.927611156024587  -0.0020326459993525526  -0.7897389271346176

He  -3.7015353102922997  -2.4659515726820183  1.9031175423349092

He  3.138356594860626  -0.06276925814134324  -4.697300661692335

He  4.674093233441352  4.9479283650437305  -0.30650429540706603

He  -3.8122782668156  2.2684544937214692  -5.064148544405778

He  3.6462848794737774  -3.4532242989141184  4.6222990780446205

He  2.5066124458654584  -4.114496918780874  -2.4525375223487464

